<?xml version="1.0" encoding="UTF-8"?>

<!-- generated on 2026-02-25T11:09:07.121969+05:30 by Eclipse SUMO netconvert 1.26.0
<netconvertConfiguration xmlns:xsi="http://www.w3.org/2001/XMLSchema-instance" xsi:noNamespaceSchemaLocation="http://sumo.dlr.de/xsd/netconvertConfiguration.xsd">

    <input>
        <node-files value="demo.nod.xml"/>
        <edge-files value="demo.edg.xml"/>
    </input>

    <output>
        <output-file value="demo.net.xml"/>
    </output>

</netconvertConfiguration>
-->

<net version="1.20" junctionCornerDetail="5" limitTurnSpeed="5.50" xmlns:xsi="http://www.w3.org/2001/XMLSchema-instance" xsi:noNamespaceSchemaLocation="http://sumo.dlr.de/xsd/net_file.xsd">

    <location netOffset="100.00,100.00" convBoundary="0.00,0.00,300.00,200.00" origBoundary="-100.00,-100.00,200.00,100.00" projParameter="!"/>

    <edge id=":Intersection_A_0" function="internal">
        <lane id=":Intersection_A_0_0" index="0" speed="13.89" length="11.20" shape="98.40,104.00 98.40,92.80"/>
    </edge>
    <edge id=":Intersection_A_1" function="internal">
        <lane id=":Intersection_A_1_0" index="0" speed="6.51" length="9.03" shape="98.40,104.00 98.75,101.55 99.80,99.80 101.55,98.75 104.00,98.40"/>
    </edge>
    <edge id=":Intersection_A_2" function="internal">
        <lane id=":Intersection_A_2_0" index="0" speed="6.51" length="9.03" shape="92.80,98.40 95.25,98.05 97.00,97.00 98.05,95.25 98.40,92.80"/>
    </edge>
    <edge id=":Intersection_A_3" function="internal">
        <lane id=":Intersection_A_3_0" index="0" speed="13.89" length="11.20" shape="92.80,98.40 104.00,98.40"/>
    </edge>
    <edge id=":Intersection_B_0" function="internal">
        <lane id=":Intersection_B_0_0" index="0" speed="13.89" length="0.10" shape="200.00,98.40 200.00,98.40"/>
    </edge>

    <edge id="edge_A_to_B" from="Intersection_A" to="Intersection_B" priority="-1">
        <lane id="edge_A_to_B_0" index="0" speed="13.89" length="96.00" shape="104.00,98.40 200.00,98.40"/>
    </edge>
    <edge id="edge_A_to_south" from="Intersection_A" to="S" priority="-1">
        <lane id="edge_A_to_south_0" index="0" speed="13.89" length="92.80" shape="98.40,92.80 98.40,0.00"/>
    </edge>
    <edge id="edge_B_to_east" from="Intersection_B" to="E" priority="-1">
        <lane id="edge_B_to_east_0" index="0" speed="13.89" length="100.00" shape="200.00,98.40 300.00,98.40"/>
    </edge>
    <edge id="edge_north_to_A" from="N" to="Intersection_A" priority="-1">
        <lane id="edge_north_to_A_0" index="0" speed="13.89" length="96.00" shape="98.40,200.00 98.40,104.00"/>
    </edge>
    <edge id="edge_west_to_A" from="W" to="Intersection_A" priority="-1">
        <lane id="edge_west_to_A_0" index="0" speed="13.89" length="92.80" shape="0.00,98.40 92.80,98.40"/>
    </edge>

    <tlLogic id="Intersection_A" type="static" programID="0" offset="0">
        <phase duration="42" state="GGrr"/>
        <phase duration="3"  state="yyrr"/>
        <phase duration="42" state="rrGG"/>
        <phase duration="3"  state="rryy"/>
    </tlLogic>
    <tlLogic id="Intersection_B" type="static" programID="0" offset="0">
        <phase duration="82" state="G"/>
        <phase duration="3"  state="y"/>
        <phase duration="5"  state="r"/>
    </tlLogic>

    <junction id="E" type="dead_end" x="300.00" y="100.00" incLanes="edge_B_to_east_0" intLanes="" shape="300.00,96.80 300.00,100.00"/>
    <junction id="Intersection_A" type="traffic_light" x="100.00" y="100.00" incLanes="edge_north_to_A_0 edge_west_to_A_0" intLanes=":Intersection_A_0_0 :Intersection_A_1_0 :Intersection_A_2_0 :Intersection_A_3_0" shape="96.80,104.00 100.00,104.00 100.44,101.78 101.00,101.00 101.78,100.44 102.78,100.11 104.00,100.00 104.00,96.80 101.78,96.36 101.00,95.80 100.44,95.02 100.11,94.02 100.00,92.80 96.80,92.80 96.36,95.02 95.80,95.80 95.02,96.36 94.02,96.69 92.80,96.80 92.80,100.00 95.02,100.44 95.80,101.00 96.36,101.78 96.69,102.78">
        <request index="0" response="1100" foes="1100" cont="0"/>
        <request index="1" response="1000" foes="1000" cont="0"/>
        <request index="2" response="0000" foes="0001" cont="0"/>
        <request index="3" response="0000" foes="0011" cont="0"/>
    </junction>
    <junction id="Intersection_B" type="traffic_light" x="200.00" y="100.00" incLanes="edge_A_to_B_0" intLanes=":Intersection_B_0_0" shape="200.00,100.00 200.00,96.80 200.00,100.00">
        <request index="0" response="0" foes="0" cont="0"/>
    </junction>
    <junction id="N" type="dead_end" x="100.00" y="200.00" incLanes="" intLanes="" shape="100.00,200.00 96.80,200.00"/>
    <junction id="S" type="dead_end" x="100.00" y="0.00" incLanes="edge_A_to_south_0" intLanes="" shape="96.80,0.00 100.00,0.00"/>
    <junction id="W" type="dead_end" x="0.00" y="100.00" incLanes="" intLanes="" shape="0.00,100.00 0.00,96.80"/>

    <connection from="edge_A_to_B" to="edge_B_to_east" fromLane="0" toLane="0" via=":Intersection_B_0_0" tl="Intersection_B" linkIndex="0" dir="s" state="O"/>
    <connection from="edge_north_to_A" to="edge_A_to_south" fromLane="0" toLane="0" via=":Intersection_A_0_0" tl="Intersection_A" linkIndex="0" dir="s" state="o"/>
    <connection from="edge_north_to_A" to="edge_A_to_B" fromLane="0" toLane="0" via=":Intersection_A_1_0" tl="Intersection_A" linkIndex="1" dir="l" state="o"/>
    <connection from="edge_west_to_A" to="edge_A_to_south" fromLane="0" toLane="0" via=":Intersection_A_2_0" tl="Intersection_A" linkIndex="2" dir="r" state="O"/>
    <connection from="edge_west_to_A" to="edge_A_to_B" fromLane="0" toLane="0" via=":Intersection_A_3_0" tl="Intersection_A" linkIndex="3" dir="s" state="O"/>

    <connection from=":Intersection_A_0" to="edge_A_to_south" fromLane="0" toLane="0" dir="s" state="M"/>
    <connection from=":Intersection_A_1" to="edge_A_to_B" fromLane="0" toLane="0" dir="l" state="M"/>
    <connection from=":Intersection_A_2" to="edge_A_to_south" fromLane="0" toLane="0" dir="r" state="M"/>
    <connection from=":Intersection_A_3" to="edge_A_to_B" fromLane="0" toLane="0" dir="s" state="M"/>
    <connection from=":Intersection_B_0" to="edge_B_to_east" fromLane="0" toLane="0" dir="s" state="M"/>

</net>
